# Packages
 &PACKAGES
 useOffline=.TRUE.,
 useDiagnostics=.TRUE.,
 useFLT=.TRUE.,
# usePTRACERS=.TRUE.,
# useRBCS=.TRUE.,
 &
  
