# ====================
# | Model parameters |
# ====================
#
# Continuous equation parameters
 &PARM01
 tempStepping=.FALSE.,
 saltStepping=.FALSE.,
 hFacMin=0.3,
 hFacInf=0.1,
 hFacSup=5.,
 useSingleCpuIO=.TRUE.,
# readBinaryPrec=32,
# writeBinaryPrec=32,
&
#
# Elliptic solver parameters
 &PARM02
 cg2dMaxIters=1000,
 cg2dTargetResidual=1.E-13,
 &
#
# Time stepping parameters
 &PARM03
 nIter0 =0,
 nTimeSteps=800,
 deltaTtracer= 25.0,
 deltaTClock = 25.0,
 pChkptFreq= 604800.,
 chkptFreq= 604800.,
 dumpFreq=  0.,
 taveFreq=  0.,
 monitorFreq= 86400.,
 &
#
# Gridding parameters
 &PARM04
 usingSphericalPolarGrid=.TRUE.,
 xgOrigin=-15.5, 
 ygOrigin=-57.00656128,
 delXFile='delx_llc_4320_agulhas.bin',
 delYFile='dely_llc_4320_agulhas.bin',
 delZ=
  1, 1.14, 1.3, 1.49, 1.7, 1.93, 2.2, 2.5, 2.84, 3.21, 3.63, 4.1, 4.61,
  5.18, 5.79, 6.47, 7.2, 7.98, 8.83, 9.73, 10.69, 11.7, 12.76, 13.87,
  15.03, 16.22, 17.45, 18.7, 19.97, 21.27, 22.56, 23.87, 25.17, 26.46,
  27.74, 29, 30.24, 31.45, 32.65, 33.82, 34.97, 36.09, 37.2, 38.29,
  39.37,
  40.45, 41.53, 42.62, 43.73, 44.87, 46.05, 47.28, 48.56, 49.93, 51.38,
  52.93, 54.61, 56.42, 58.38, 60.53, 62.87, 65.43, 68.24, 71.33, 74.73,
  78.47, 82.61, 87.17, 92.21, 97.79, 103.96, 110.79, 118.35, 126.73,
  136.01, 146.3, 157.71, 170.35, 184.37, 199.89, 217.09, 236.13,
  257.21,
  280.5, 306.24, 334.64, 365.93, 400.38, 438.23, 479.74,
 &

#
# Input datasets
 &PARM05
 bathyFile='bathy_llc_4320_agulhas.bin',
 &
